%chk=methylethylether.chk
# AMBER geom=connectivity 

Title Card Required

0 1
 C              -1.60334355    1.45896654    0.00000000
 H             -1.24667071    1.96336473    0.87365150
 H             -1.24667071    1.96336473   -0.87365150
 H             -2.67334355    1.45897973    0.00000000
 C               0.44997216    0.00701619   -0.00000339
 H              0.80664252    0.50971724   -0.87463354
 H              0.80664692    0.51311061    0.87266582
 O              -1.09002784    0.00703439    0.00000000
 C               0.96328788   -1.44491323    0.00281556
 H              0.60653046   -1.95103648   -0.86980314
 H              2.03328788   -1.44492607    0.00271237
 H              0.60669957   -1.94758481    0.87749610

 1 2 1.0 3 1.0 4 1.0 8 1.0
 2
 3
 4
 5 6 1.0 7 1.0 8 1.0 9 1.0
 6
 7
 8
 9 10 1.0 11 1.0 12 1.0
 10
 11
 12

